%chk=check.chk
%mem=1500mb
%nproc=8

#P opt=(noeigentest, calcfc) cbs-qb3   scf=xqc

name

0 1
C      -1.11035400    0.12086800   -0.26013600
C       0.16007300   -0.25580300    0.46778300
C       1.40455200    0.01274900    0.03007100
H      -0.88851100    0.64729500   -1.20197000
H      -1.74635200    0.77706000    0.36131500
H      -1.71388000   -0.77384300   -0.49789500
H       0.02960100   -0.78536700    1.41873400
H       2.29065700   -0.28198800    0.59557000
H       1.57421300    0.53903000   -0.91347200




