%chk=check.chk
%mem=1500mb
%nproc=8

#P  ub3lyp/cbsb7 freq iop(7/33=1)  scf=xqc

name

0 2
O       0.98635600   -0.15407700    0.26054000
C       2.81542200    1.26704200    0.57845700
C       2.16411400    0.12608400    0.02793500
H       3.85230800    1.48727500    0.35547800
H       2.25688900    1.92471400    1.23327000
H       2.77290100   -0.51768900   -0.63546200




