%chk=check.chk
%mem=1500mb
%nproc=8

#P opt=calcfc /   scf=xqc

name

0 1
N      -0.64840700    0.00024400   -0.36375800
N       0.64840800   -0.00106300    0.36375500
H      -1.14843400   -0.79601100    0.03021600
H      -1.14892100    0.79442900    0.03375600
H       0.47026043    0.58526910    1.17845767
H       1.24833160    0.59198435   -0.20865265




