%chk=check.chk
%mem=1500mb
%nproc=8

#P opt=calcfc hf/3-21g*   scf=xqc

name

0 1
N       0.98741190    0.06575131    0.09175885
C       0.51049713   -1.29142454    0.28881347
H      -0.58284468   -1.31073212    0.29257950
H       0.86505150   -1.68093154    1.24712384
H       0.87020961   -1.94554562   -0.51050156
H       2.00608826    0.06556995    0.06006449
H       0.67564745    0.40573907   -0.81704108




