%chk=check.chk
%mem=1500mb
%nproc=8

#P opt=(noeigentest, calcfc) cbs-qb3   scf=xqc

name

0 1
N      -0.67472600    0.00070800   -0.36152000
N       0.67472600   -0.00054400    0.36152100
H      -1.16229800   -0.82130600    0.02351000
H      -1.16372300    0.81924700    0.02906700
H       1.16244700    0.82122500   -0.02384500
H       1.16357400   -0.81933000   -0.02873300




