%chk=check.chk
%mem=1500mb
%nproc=8

#P opt=calcfc hf/3-21g*   scf=xqc

name

0 1
C      -1.09876725    0.12154224   -0.26091425
C       0.15096574   -0.25451060    0.46510604
C       1.38593778    0.01527227    0.02481271
H      -0.88997940    0.64559828   -1.19896310
H      -1.71193603    0.77551061    0.36656156
H      -1.67944292   -0.77636704   -0.49318781
H       0.02813431   -0.78025506    1.40944996
H       2.25771067   -0.28429197    0.59848417
H       1.55737710    0.53750128   -0.91134927




