%chk=check.chk
%mem=1500mb
%nproc=8

#P  b3lyp/cbsb7 freq iop(7/33=1)  scf=xqc

name

0 1
N       0.82426700    0.20619100   -0.34885200
C      -0.56981000   -0.02279400    0.04344100
H      -1.08479900   -0.56295600   -0.75538900
H      -0.71377000   -0.58798600    0.97813400
H      -1.07552700    0.93999200    0.15484500
H       1.30553300   -0.68101300   -0.45687700
H       1.31410600    0.70856700    0.38469700




