%chk=check.chk
%mem=1500mb
%nproc=8

#P opt=calcfc ub97d/6-31g   scf=xqc

name

0 2
O       1.18215188    0.07715196   -0.03573968
C       3.17218026   -1.18939339   -0.04082576
C       2.42834466   -0.07463307   -0.03634920
H       4.25276396   -1.14003323   -0.04062754
H       2.69391490   -2.16240167   -0.04473308
H       3.02956521    0.83707003   -0.03268806




