%chk=check.chk
%mem=1500mb
%nproc=8

#P opt=(noeigentest, calcfc) cbs-qb3   scf=xqc

name

0 1
N      -0.64628800    0.01133300   -0.33835700
N       0.63048600    0.01999500    0.36658200
H      -1.14764200   -0.82616600    0.01047400
H      -1.21863700    0.81482300   -0.01081600
H       0.53239200    0.58030500    1.23657800
H       1.27092800    0.57456300   -0.23068800




