%chk=check.chk
%mem=1500mb
%nproc=8

#P opt=calcfc ub97d/6-31g   scf=xqc

name

0 2
O       1.41166223   -1.00596680   -0.24693477
C      -0.68719391    0.01611658    0.09148274
C       0.64038982   -0.02857313   -0.08607398
H      -1.26442776   -0.90142582    0.11185364
H      -1.20272707    0.95881460    0.21655749
H       1.10229670    0.96103458   -0.08688512




