%chk=check.chk
%mem=1500mb
%nproc=8

#P opt=calcfc b97d/6-31g   scf=xqc

name

0 1
N       0.97358058   -0.06741088   -0.08882038
C       0.49666602    0.80513398   -1.14684806
H      -0.59667580    0.81690014   -1.16261287
H       0.85122041    0.44951401   -2.11824342
H       0.85637854    1.82669716   -0.99457348
H       1.99225692   -0.04597637   -0.06547288
H       0.66181615    0.29160337    0.81263277




