%chk=check.chk
%mem=1500mb
%nproc=8

#P opt=calcfc ub97d/6-31g   scf=xqc

name

0 2
O       0.98814591   -0.14489251    0.26620839
C       2.81966312    1.28242233    0.58752070
C       2.15793987    0.10894025    0.01835825
H       3.85339889    1.47746040    0.34831023
H       2.24702636    1.92726494    1.23860207
H       2.78181693   -0.51784788   -0.63878130




