%chk=check.chk
%mem=1500mb
%nproc=8

#P opt=calcfc uhf/3-21g*   scf=xqc

name

0 2
O       0.98181907    0.38486195    0.06348120
C       2.81601835   -0.18904099   -1.27863403
C       2.15298885    0.03962806    0.00471553
H       3.85095137   -0.49320585   -1.29501811
H       2.24310517   -0.04494426   -2.18342593
H       2.77720880   -0.11979078    0.89850167




