%chk=check.chk
%mem=1500mb
%nproc=8

#P opt=calcfc hf/3-21g*   scf=xqc

name

0 1
C       0.93938851   -0.01943229   -0.08250225
C       0.46110999    1.35397172   -0.41966761
C       0.76237635    2.43720507    0.30678670
H       0.57387214   -0.33017633    0.90102629
H       0.56415744   -0.73585475   -0.82034358
H       2.03256556   -0.06703525   -0.09629800
H      -0.16285547    1.46202060   -1.30378603
H       1.38212131    2.37097336    1.19576535
H       0.39192180    3.41761112    0.02363385




